# generated using pymatgen
data_BaSr(CoO3)2
_symmetry_space_group_name_H-M   'P 1'
_cell_length_a   7.84953661
_cell_length_b   7.85631486
_cell_length_c   7.93547511
_cell_angle_alpha   90.00000000
_cell_angle_beta   90.00000000
_cell_angle_gamma   90.00000000
_symmetry_Int_Tables_number   1
_chemical_formula_structural   BaSr(CoO3)2
_chemical_formula_sum   'Ba4 Sr4 Co8 O24'
_cell_volume   489.36829984
_cell_formula_units_Z   4
loop_
 _symmetry_equiv_pos_site_id
 _symmetry_equiv_pos_as_xyz
  1  'x, y, z'
loop_
 _atom_site_type_symbol
 _atom_site_label
 _atom_site_symmetry_multiplicity
 _atom_site_fract_x
 _atom_site_fract_y
 _atom_site_fract_z
 _atom_site_occupancy
  Ba  Ba0  1  0.50000000  0.00000000  0.50000000  1
  Ba  Ba1  1  0.50000000  0.50000000  0.00000000  1
  Ba  Ba2  1  0.00000000  0.00000000  0.00000000  1
  Ba  Ba3  1  0.00000000  0.50000000  0.50000000  1
  Sr  Sr4  1  0.50000000  0.50000000  0.50000000  1
  Sr  Sr5  1  0.50000000  0.00000000  0.00000000  1
  Sr  Sr6  1  0.00000000  0.50000000  0.00000000  1
  Sr  Sr7  1  0.00000000  0.00000000  0.50000000  1
  Co  Co8  1  0.25000000  0.25000000  0.25000000  1
  Co  Co9  1  0.25000000  0.25000000  0.75000000  1
  Co  Co10  1  0.25000000  0.75000000  0.75000000  1
  Co  Co11  1  0.25000000  0.75000000  0.25000000  1
  Co  Co12  1  0.75000000  0.25000000  0.75000000  1
  Co  Co13  1  0.75000000  0.25000000  0.25000000  1
  Co  Co14  1  0.75000000  0.75000000  0.25000000  1
  Co  Co15  1  0.75000000  0.75000000  0.75000000  1
  O  O16  1  0.75000000  0.25000000  0.49922450  1
  O  O17  1  0.25000000  0.25000000  0.50077550  1
  O  O18  1  0.97449400  0.25000000  0.75000000  1
  O  O19  1  0.25000000  0.47483450  0.75000000  1
  O  O20  1  0.02550600  0.25000000  0.25000000  1
  O  O21  1  0.75000000  0.02516550  0.25000000  1
  O  O22  1  0.75000000  0.75000000  0.99922450  1
  O  O23  1  0.25000000  0.75000000  0.00077550  1
  O  O24  1  0.97449400  0.75000000  0.25000000  1
  O  O25  1  0.25000000  0.97483450  0.25000000  1
  O  O26  1  0.02550600  0.75000000  0.75000000  1
  O  O27  1  0.75000000  0.52516550  0.75000000  1
  O  O28  1  0.25000000  0.25000000  0.99922450  1
  O  O29  1  0.75000000  0.25000000  0.00077550  1
  O  O30  1  0.47449400  0.25000000  0.25000000  1
  O  O31  1  0.75000000  0.47483450  0.25000000  1
  O  O32  1  0.52550600  0.25000000  0.75000000  1
  O  O33  1  0.25000000  0.02516550  0.75000000  1
  O  O34  1  0.25000000  0.75000000  0.49922450  1
  O  O35  1  0.75000000  0.75000000  0.50077550  1
  O  O36  1  0.47449400  0.75000000  0.75000000  1
  O  O37  1  0.75000000  0.97483450  0.75000000  1
  O  O38  1  0.52550600  0.75000000  0.25000000  1
  O  O39  1  0.25000000  0.52516550  0.25000000  1
